
FoamFile
{
    version     2.0;
    format      ascii;
    class       dictionary;
    object      createBafflesDict;
}

internalFacesOnly true;

baffles
{
    baffleFaces
    {
        type		faceZone;
        zoneName	airfoil;
		flip		false;
        patches
        {
            master
            {
                name            airfoil;
                type            wall;
            }
            slave { ${..master} }
        }
    }
}
